ZINC000006691800
                    3D
 Schrodinger Suite 2020-1.
 20 20  0  0  1  0            999 V2000
   -0.5036    2.1406    0.5934 O   0  0  0  0  0  0
   -0.7855    1.0244    0.1574 C   0  0  0  0  0  0
    0.0821    0.0372   -0.1475 N   0  0  0  0  0  0
    1.4488    0.0484   -0.0613 C   0  0  0  0  0  0
    2.0579   -1.1557    0.0102 C   0  0  0  0  0  0
    3.5667   -1.3579    0.1102 C   0  0  0  0  0  0
    4.3107   -0.0294    0.3791 C   0  0  0  0  0  0
    3.7172    1.1432   -0.4205 C   0  0  0  0  0  0
    2.2324    1.3708   -0.0645 C   0  0  0  0  0  0
   -1.8166    0.6879   -0.0319 H   0  0  0  0  0  0
   -0.3158   -0.8364   -0.4600 H   0  0  0  0  0  0
    1.4454   -2.0473   -0.0076 H   0  0  0  0  0  0
    3.8075   -2.0818    0.8894 H   0  0  0  0  0  0
    3.9190   -1.7991   -0.8228 H   0  0  0  0  0  0
    4.2585    0.2055    1.4435 H   0  0  0  0  0  0
    5.3701   -0.1455    0.1477 H   0  0  0  0  0  0
    4.2869    2.0549   -0.2365 H   0  0  0  0  0  0
    3.8125    0.9338   -1.4875 H   0  0  0  0  0  0
    1.8196    2.0454   -0.8162 H   0  0  0  0  0  0
    2.1041    1.8982    0.8816 H   0  0  0  0  0  0
  1  2  2  0  0  0
  2  3  1  0  0  0
  2 10  1  0  0  0
  3  4  1  0  0  0
  3 11  1  0  0  0
  4  9  1  0  0  0
  4  5  2  0  0  0
  5  6  1  0  0  0
  5 12  1  0  0  0
  6  7  1  0  0  0
  6 13  1  0  0  0
  6 14  1  0  0  0
  7  8  1  0  0  0
  7 15  1  0  0  0
  7 16  1  0  0  0
  8  9  1  0  0  0
  8 17  1  0  0  0
  8 18  1  0  0  0
  9 19  1  0  0  0
  9 20  1  0  0  0
M  END
> <i_m_ct_stereo_status>
1

> <s_m_entry_id>
153

> <s_m_entry_name>
ZINC000006691800.1

> <s_m_Source_Path>
/home/agruzka/frag_libraries/zinc_filtered_sdfs

> <s_m_Source_File>
ZINC000006691800.sdf

> <i_m_Source_File_Index>
1

> <s_m_source_file>
ligprep_1.maegz

> <i_m_source_file_index>
13

> <i_lp_mmshare_version>
49012

> <s_epik_input>
Tz1bQ0hdW05IXUMxPVtDSF1bQ0gyXVtDSDJdW0NIMl1bQ0gyXTE=

> <s_epik_cmdline>
J2VwaWtfcHl0aG9uJywgJy1waCcsICc3LjAnLCAnLXRuJywgJzgnLCAnLW1hJywgJzIwMCcsICctaW1hZScsICc8aW5maWxlLm1hZT4nLCAnLW9tYWUnLCAnPG91dGZpbGUubWFlPic=

> <r_epik_Ionization_Penalty>
  0.0000

> <r_epik_Ionization_Penalty_Charging>
  0.0000

> <r_epik_Ionization_Penalty_Neutral>
  0.0000

> <r_epik_State_Penalty>
  0.0000

> <r_epik_Charging_Adjusted_Penalty>
0

> <i_epik_Tot_Q>
0

> <i_epik_Tot_abs_Q>
0

> <i_f3d_flags>
0

> <s_lp_Force_Field>
OPLS3e

> <r_lp_Energy>
6.961248

> <b_lp_Chiralities_Consistent>
1

> <s_lp_Variant>
ZINC000006691800-1

> <s_m_job_name>
ligprep_1

> <r_lp_tautomer_probability>
1

> <s_m_subgroup_title>
ligprep_1-out1

> <s_m_subgroupid>
ligprep_1-out1

> <b_m_subgroup_collapsed>
0

$$$$
